 .Sol file Watershed HRU:20 Subbasin:3 HRU:4 Luse:FRST Soil: STISSING Slope: 1-9999 2014/1/25 0:00:00 ArcSWAT 2009.93.7
 Soil Name: STISSING
 Soil Hydrologic Group: C
 Maximum rooting depth(m) : 1524.00
 Porosity fraction from which anions are excluded: 0.500
 Crack volume potential of soil: 0.500
 Texture 1                : STV-SIL-CN--SIL-CN--SIL
 Depth                [mm]:      228.60      406.40     1524.00
 Bulk Density Moist [g/cc]:        1.05        1.35        1.80
 Ave. AW Incl. Rock Frag  :        0.22        0.23        0.24
 Ksat. (est.)      [mm/hr]:       19.00       21.00       16.00
 Organic Carbon [weight %]:        0.00        0.00        0.00
 Clay           [weight %]:        7.00        7.00        6.50
 Silt           [weight %]:       58.99       58.99       59.31
 Sand           [weight %]:       34.01       34.01       34.19
 Rock Fragments   [vol. %]:       40.00       18.36       31.06
 Soil Albedo (Moist)      :        0.23        0.23        0.23
 Erosion K                :        0.20        0.37        0.28
 Salinity (EC, Form 5)    :        0.00        0.00        0.00
                              
