 .Sol file Watershed HRU:39 Subbasin:7 HRU:1 Luse:FRST Soil: HADLEY Slope: 1-9999 2014/1/25 0:00:00 ArcSWAT 2009.93.7
 Soil Name: HADLEY
 Soil Hydrologic Group: B
 Maximum rooting depth(m) : 1828.80
 Porosity fraction from which anions are excluded: 0.500
 Crack volume potential of soil: 0.500
 Texture 1                : VFSL-VFS-S
 Depth                [mm]:      279.40     1727.20     1828.80
 Bulk Density Moist [g/cc]:        1.35        1.35        1.35
 Ave. AW Incl. Rock Frag  :        0.22        0.23        0.24
 Ksat. (est.)      [mm/hr]:      190.00      280.00      400.00
 Organic Carbon [weight %]:        2.03        0.68        0.23
 Clay           [weight %]:        7.00        6.00        4.50
 Silt           [weight %]:       29.23        6.00        1.49
 Sand           [weight %]:       63.77       88.00       94.01
 Rock Fragments   [vol. %]:        1.29        1.29        1.29
 Soil Albedo (Moist)      :        0.01        0.06        0.15
 Erosion K                :        0.49        0.49        0.49
 Salinity (EC, Form 5)    :        0.00        0.00        0.00
                              
