 .Sol file Watershed HRU:14 Subbasin:2 HRU:4 Luse:FRST Soil: SCARBORO Slope: 1-9999 2014/1/25 0:00:00 ArcSWAT 2009.93.7
 Soil Name: SCARBORO
 Soil Hydrologic Group: D
 Maximum rooting depth(m) : 1651.00
 Porosity fraction from which anions are excluded: 0.500
 Crack volume potential of soil: 0.500
 Texture 1                : MK--LS-FS-S-GR--COS
 Depth                [mm]:      228.60      406.40      838.20     1651.00
 Bulk Density Moist [g/cc]:        0.85        1.25        1.45        1.45
 Ave. AW Incl. Rock Frag  :        0.22        0.23        0.24        0.02
 Ksat. (est.)      [mm/hr]:      450.00      850.00      750.00      700.00
 Organic Carbon [weight %]:        0.00        0.00        0.00        0.00
 Clay           [weight %]:        4.00        3.00        1.00        1.00
 Silt           [weight %]:       15.98        0.62        1.54        6.53
 Sand           [weight %]:       80.02       96.38       97.46       92.47
 Rock Fragments   [vol. %]:       20.00        3.68        8.81       20.85
 Soil Albedo (Moist)      :        0.23        0.23        0.23        0.23
 Erosion K                :        0.17        0.17        0.10        0.10
 Salinity (EC, Form 5)    :        0.00        0.00        0.00        0.00
                              
