 .Sol file Watershed HRU:64 Subbasin:12 HRU:1 Luse:FRST Soil: PALATINE Slope: 1-9999 2014/1/25 0:00:00 ArcSWAT 2009.93.7
 Soil Name: PALATINE
 Soil Hydrologic Group: B
 Maximum rooting depth(m) :  736.60
 Porosity fraction from which anions are excluded: 0.500
 Crack volume potential of soil: 0.500
 Texture 1                : SIL-CN--SIL-CNV-SIL-UWB
 Depth                [mm]:      279.40      457.20      711.20      736.60
 Bulk Density Moist [g/cc]:        1.25        1.35        1.83        2.50
 Ave. AW Incl. Rock Frag  :        0.22        0.23        0.24        0.01
 Ksat. (est.)      [mm/hr]:       26.00       15.00        6.80      500.00
 Organic Carbon [weight %]:        3.49        0.29        0.29        0.10
 Clay           [weight %]:       11.50       11.50       11.50        5.00
 Silt           [weight %]:       56.14       56.14       56.14       25.00
 Sand           [weight %]:       32.36       32.36       32.36       70.00
 Rock Fragments   [vol. %]:        7.51       20.93       51.86       98.00
 Soil Albedo (Moist)      :        0.01        0.13        0.13        0.19
 Erosion K                :        0.32        0.28        0.20        0.00
 Salinity (EC, Form 5)    :        0.00        0.00        0.00        0.00
                              
