 .Wgn file Subbasin: 19 STATION NAME:c2wgn 2014/1/25 0:00:00 ArcSWAT 2009.93.7
  LATITUDE =  25.45 LONGITUDE = 106.56
  ELEV [m] = 610.00
  RAIN_YRS =  32.00
 10.39 12.81 18.32 23.19 25.40 27.10 28.24 28.33 26.01 21.43 17.07 12.61
  4.89  6.56  9.87 14.03 16.81 19.23 20.56 19.91 17.40 14.07  9.97  6.09
  4.29  5.80  6.49  5.57  4.38  3.15  2.93  3.06  3.72  3.99  4.34  4.23
  3.49  4.05  3.94  3.36  3.04  2.35  1.50  1.63  2.52  3.14  3.52  3.62
 61.90 54.51 56.33 75.45205.60361.78342.12241.53159.26104.62 71.94 54.40
  2.35  2.15  2.37  3.52 11.81 18.00 15.29 11.00 10.36  6.78  5.16  2.53
  3.35  3.33  3.87  3.89  5.22  3.60  3.76  3.64  5.19  5.73  6.47  3.32
  0.56  0.43  0.51  0.59  0.59  0.57  0.78  0.68  0.38  0.40  0.38  0.39
  0.95  0.96  0.95  0.94  0.94  0.97  0.98  0.96  0.92  0.92  0.92  0.92
 28.59 26.50 27.97 27.44 27.88 28.19 30.28 29.63 24.72 25.84 24.50 25.56
  5.38  4.57  5.17  8.60 30.02 35.00 28.96 20.42 22.12 18.61 14.38  5.70
  6.34  8.48 12.74 16.14 17.51 18.77 20.03 19.96 17.06 11.68  9.21  7.39
  0.85  0.82  0.77  0.77  0.83  0.87  0.88  0.87  0.84  0.85  0.84  0.83
  1.50  1.66  1.84  1.89  1.71  1.54  1.57  1.37  1.44  1.43  1.42  1.41
