 .Wgn file Subbasin: 35 STATION NAME:c8wgn 2014/1/25 0:00:00 ArcSWAT 2009.93.7
  LATITUDE =  23.57 LONGITUDE = 106.56
  ELEV [m] = 766.00
  RAIN_YRS =  32.00
 13.13 15.38 20.72 25.67 27.28 28.60 29.12 28.86 27.09 23.74 19.68 15.36
  7.40  9.17 12.51 16.74 19.03 21.20 21.90 21.41 18.89 15.50 11.45  7.80
  5.01  6.50  6.96  6.00  4.39  3.11  3.02  3.10  3.50  4.20  4.53  4.74
  3.97  4.35  4.20  3.53  2.88  1.92  1.11  1.26  2.36  3.40  3.92  4.17
 71.40 58.43 68.55 98.17244.84339.87333.74364.84248.85137.47 83.00 61.05
  3.57  2.81  3.90  5.88 12.79 17.93 15.24 17.32 13.41  8.32  6.31  3.99
  5.12  5.56  6.41  5.15  3.36  4.00  3.52  5.23  3.05  3.31  5.33  4.91
  0.40  0.46  0.49  0.55  0.52  0.56  0.77  0.75  0.44  0.31  0.32  0.31
  0.94  0.94  0.94  0.93  0.95  0.98  0.98  0.97  0.92  0.91  0.89  0.90
 27.00 25.84 27.38 26.66 27.91 28.66 30.31 30.00 25.50 24.19 22.13 23.16
  9.07  8.95 10.52 15.69 21.44 41.02 31.03 49.74 21.08 13.53 14.67  7.59
  6.61  8.24 12.53 15.80 17.38 19.09 20.18 19.65 17.29 13.09 10.46  8.29
  0.85  0.84  0.78  0.77  0.83  0.87  0.88  0.88  0.86  0.85  0.83  0.83
  1.31  1.46  1.71  1.76  1.58  1.45  1.51  1.31  1.33  1.28  1.27  1.26
