 .Sol file Watershed HRU:284 Subbasin:53 HRU:2 Luse:FRSE Soil: WAREHAM Slope: 1-9999 2014/1/25 0:00:00 ArcSWAT 2009.93.7
 Soil Name: WAREHAM
 Soil Hydrologic Group: C
 Maximum rooting depth(m) : 1524.00
 Porosity fraction from which anions are excluded: 0.500
 Crack volume potential of soil: 0.500
 Texture 1                : LFS-S-COS-COS
 Depth                [mm]:      152.40      406.40      914.40     1524.00
 Bulk Density Moist [g/cc]:        1.10        1.40        1.50        1.50
 Ave. AW Incl. Rock Frag  :        0.22        0.23        0.24        0.03
 Ksat. (est.)      [mm/hr]:      750.00     1050.00      900.00      750.00
 Organic Carbon [weight %]:        2.03        0.58        0.29        0.29
 Clay           [weight %]:        2.00        1.50        1.50        1.00
 Silt           [weight %]:       16.87        1.53        6.49        6.53
 Sand           [weight %]:       81.13       96.97       92.01       92.47
 Rock Fragments   [vol. %]:        5.60        7.02        7.48       10.00
 Soil Albedo (Moist)      :        0.01        0.08        0.13        0.13
 Erosion K                :        0.17        0.17        0.17        0.10
 Salinity (EC, Form 5)    :        0.00        0.00        0.00        0.00
                              
