 .Sol file Watershed HRU:294 Subbasin:55 HRU:1 Luse:FRSE Soil: RIPPOWAM Slope: 1-9999 2014/1/25 0:00:00 ArcSWAT 2009.93.7
 Soil Name: RIPPOWAM
 Soil Hydrologic Group: C
 Maximum rooting depth(m) : 1651.00
 Porosity fraction from which anions are excluded: 0.500
 Crack volume potential of soil: 0.500
 Texture 1                : FSL-FSL-GRV-COS
 Depth                [mm]:      127.00      685.80     1651.00
 Bulk Density Moist [g/cc]:        1.23        1.33        1.38
 Ave. AW Incl. Rock Frag  :        0.22        0.23        0.24
 Ksat. (est.)      [mm/hr]:      450.00      300.00      600.00
 Organic Carbon [weight %]:        3.20        1.07        0.36
 Clay           [weight %]:        4.00        3.50        1.00
 Silt           [weight %]:       34.85       35.03        6.53
 Sand           [weight %]:       61.15       61.47       92.47
 Rock Fragments   [vol. %]:        4.89        5.26       40.00
 Soil Albedo (Moist)      :        0.01        0.03        0.12
 Erosion K                :        0.20        0.20        0.17
 Salinity (EC, Form 5)    :        0.00        0.00        0.00
                              
