 .Wgn file Subbasin: 65 STATION NAME:c10wgn 2014/1/25 0:00:00 ArcSWAT 2009.93.7
  LATITUDE =  22.64 LONGITUDE = 108.75
  ELEV [m] = 108.00
  RAIN_YRS =  32.00
 15.11 16.56 21.02 26.54 28.91 29.98 30.98 31.10 29.75 27.19 22.71 18.02
  9.00 10.67 13.86 18.33 21.18 23.57 24.29 24.23 22.10 18.46 13.96 10.14
  6.10  7.25  7.40  6.52  4.10  2.88  2.89  2.84  3.39  4.53  5.31  5.51
  3.85  4.38  4.18  3.61  2.73  1.69  0.91  0.94  2.01  3.04  3.56  3.79
 96.20 96.50 96.86152.67358.06476.89428.49399.64248.34127.28 66.47 59.19
  6.50  5.27  5.34  7.45 16.42 17.16 16.24 14.50 12.34 10.48  5.82  4.80
  7.62  3.33  4.88  2.94  5.12  3.14  4.95  5.07  4.40  6.16  5.65  5.72
  0.33  0.48  0.57  0.61  0.54  0.59  0.70  0.58  0.38  0.21  0.20  0.21
  0.92  0.92  0.92  0.91  0.94  0.97  0.96  0.97  0.92  0.84  0.83  0.85
 24.09 24.75 27.16 26.25 27.84 28.63 29.53 29.81 24.94 18.72 16.16 17.72
 23.37  8.20 13.44 13.77 47.24 34.10 43.01 40.16 31.19 27.26 15.38 11.78
  7.10  7.38 10.33 14.81 17.48 19.62 21.71 20.63 18.21 15.32 12.20  9.30
  0.77  0.82  0.80  0.81  0.84  0.88  0.86  0.86  0.83  0.75  0.71  0.70
  2.27  2.25  2.26  2.16  1.99  1.88  1.95  1.62  1.81  2.07  2.20  2.24
