 .Wgn file Subbasin: 60 STATION NAME:c9wgn 2014/1/25 0:00:00 ArcSWAT 2009.93.7
  LATITUDE =  23.26 LONGITUDE = 112.81
  ELEV [m] =  15.00
  RAIN_YRS =  32.00
 16.71 17.23 20.90 24.66 27.53 29.22 31.03 31.22 29.63 27.76 23.61 19.18
  9.20 11.08 14.21 18.24 20.99 23.51 24.40 24.39 22.12 18.42 14.00  9.92
  5.34  6.31  6.08  5.00  3.31  2.71  2.97  2.90  3.18  3.68  4.81  4.74
  3.77  4.28  4.10  3.30  2.52  1.76  0.94  0.90  2.03  2.94  3.60  3.86
 80.47126.57164.11303.97461.16547.19468.15459.02296.70107.64 64.24 50.19
  5.92  6.48  7.52 15.59 20.57 18.82 15.44 16.56 15.26  9.38  7.23  4.71
  6.01  2.58  3.92  4.93  4.24  2.52  2.24  3.24  3.81  5.27  8.27  5.30
  0.32  0.43  0.45  0.60  0.56  0.76  0.60  0.59  0.45  0.23  0.19  0.18
  0.87  0.92  0.95  0.96  0.97  0.98  0.97  0.98  0.93  0.80  0.79  0.81
 21.47 23.47 28.03 28.44 29.13 29.47 29.50 30.09 25.94 17.78 14.06 15.09
 16.58 10.32 19.24 39.37 47.13 35.20 30.54 33.31 35.83 20.91 23.70 11.18
  9.14  8.10  9.93 12.70 15.91 18.35 21.80 20.23 17.90 16.21 13.15 11.02
  0.73  0.82  0.84  0.88  0.90  0.91  0.87  0.87  0.85  0.75  0.68  0.66
  2.02  1.93  1.87  1.70  1.58  1.61  1.67  1.47  1.68  1.95  2.09  2.09
