 .Wgn file Subbasin: 2 STATION NAME:c1wgn 2014/1/25 0:00:00 ArcSWAT 2009.93.7
  LATITUDE =  25.45 LONGITUDE = 108.75
  ELEV [m] =1400.00
  RAIN_YRS =  32.00
  8.45  9.88 13.41 18.60 22.64 25.15 26.45 27.26 25.56 21.16 16.30 11.49
  2.80  4.70  7.86 12.60 16.30 19.58 21.17 20.60 17.37 13.23  8.50  4.13
  4.62  5.25  4.99  4.56  3.63  2.77  2.84  2.96  3.87  4.73  4.95  4.84
  3.71  4.26  4.23  3.83  3.31  2.42  1.39  1.63  2.72  3.43  3.90  3.77
108.16116.48143.01218.87413.13524.42525.01470.95237.32141.96 99.30 89.63
  4.88  5.32  5.46  8.61 19.09 22.74 18.80 17.32 13.32  8.46  6.92  5.76
  2.89  2.90  2.75  2.66  2.90  3.92  3.30  3.07  4.27  3.35  4.39  4.67
  0.36  0.51  0.47  0.67  0.58  0.57  0.89  0.60  0.40  0.31  0.31  0.32
  0.93  0.95  0.98  0.96  0.95  0.98  0.98  0.97  0.92  0.90  0.89  0.88
 26.03 25.97 29.38 28.47 28.72 28.69 30.44 29.91 25.13 23.63 21.84 22.19
  9.86  9.78 10.22 16.33 25.79 53.52 36.43 28.91 32.71 14.93 15.07 15.06
  6.66  6.84  7.90  9.58 12.19 13.11 15.70 17.56 15.12 11.67  9.51  8.20
  0.88  0.90  0.92  0.93  0.92  0.93  0.93  0.91  0.86  0.84  0.83  0.83
  1.75  1.79  1.80  1.74  1.68  1.64  1.78  1.51  1.65  1.74  1.73  1.71
