 .Wgn file Subbasin: 15 STATION NAME:c7wgn 2014/1/25 0:00:00 ArcSWAT 2009.93.7
  LATITUDE =  23.89 LONGITUDE = 111.25
  ELEV [m] = 682.00
  RAIN_YRS =  32.00
 13.75 14.52 18.01 22.99 26.41 28.39 30.12 30.67 29.20 26.76 21.80 17.04
  6.00  8.01 11.43 16.00 19.37 22.26 23.15 22.88 20.46 16.41 11.33  7.00
  5.87  6.60  6.26  5.19  3.53  2.75  2.89  2.94  3.60  4.67  5.39  5.46
  4.05  4.61  4.49  3.84  2.98  1.99  1.09  1.16  2.23  3.30  3.93  4.02
111.37142.90168.37315.86503.19547.77453.98375.17216.89108.90 66.53 55.40
  6.81  7.34  6.68 17.46 20.60 18.53 16.55 12.08 10.85 10.29  5.85  4.16
  4.03  3.09  2.84  7.43  3.17  2.30  4.20  2.53  3.26  6.05  5.33  3.89
  0.30  0.44  0.42  0.74  0.61  0.67  0.59  0.58  0.43  0.20  0.21  0.19
  0.92  0.93  0.96  0.97  0.97  0.99  0.97  0.96  0.91  0.83  0.81  0.83
 23.59 24.59 28.44 28.94 29.28 29.44 29.31 29.22 25.31 17.16 15.94 16.28
 13.20 14.08 14.11 58.40 43.40 27.95 39.09 21.15 19.37 22.05 15.94  7.56
  7.97  7.29  8.46 12.16 15.46 17.79 21.22 20.59 17.95 15.70 12.62 10.56
  0.79  0.86  0.88  0.91  0.91  0.92  0.90  0.88  0.84  0.75  0.72  0.72
  1.92  1.87  1.82  1.65  1.54  1.50  1.57  1.40  1.68  1.87  1.96  1.98
