 .Wgn file Subbasin: 23 STATION NAME:c3wgn 2014/1/25 0:00:00 ArcSWAT 2009.93.7
  LATITUDE =  24.82 LONGITUDE = 113.13
  ELEV [m] = 626.00
  RAIN_YRS =  32.00
 11.83 12.53 15.51 20.11 23.68 25.87 27.65 28.14 26.15 23.85 19.11 14.56
  4.03  6.32  9.61 14.31 17.52 20.59 21.84 21.43 18.70 14.45  9.37  4.81
  5.33  5.87  5.37  4.37  3.20  2.40  2.37  2.42  3.26  4.21  5.03  4.97
  3.84  4.47  4.36  3.79  3.03  2.24  1.07  1.21  2.41  3.39  3.94  3.95
121.11172.28240.25354.10499.51524.55431.31412.20247.04115.21 75.78 65.23
  7.56  8.65 10.21 15.16 21.54 19.41 15.77 14.97 11.91 11.09  6.26  5.01
  4.02  2.58  4.35  3.02  3.29  2.87  4.16  4.99  3.10  6.98  4.05  3.99
  0.30  0.56  0.46  0.70  0.60  0.64  0.65  0.73  0.40  0.23  0.23  0.22
  0.92  0.93  0.97  0.98  0.97  0.99  0.98  0.98  0.95  0.87  0.85  0.85
 24.38 25.31 29.00 29.16 29.34 29.56 30.28 30.31 26.81 20.59 18.03 18.38
 15.75 13.79 29.45 28.46 42.00 34.49 36.42 39.68 20.12 28.46 11.02  8.54
  8.73  7.42  7.81 10.27 13.59 15.38 19.77 19.67 16.39 14.88 12.25 10.77
  0.82  0.88  0.91  0.93  0.93  0.94  0.92  0.90  0.88  0.80  0.76  0.76
  2.47  2.42  2.28  2.12  1.96  2.03  2.12  1.78  1.95  2.19  2.39  2.46
