 .Sol file Watershed HRU:129 Subbasin:24 HRU:4 Luse:FRSD Soil: HINCKLEY Slope: 1-9999 2014/1/25 0:00:00 ArcSWAT 2009.93.7
 Soil Name: HINCKLEY
 Soil Hydrologic Group: A
 Maximum rooting depth(m) : 1651.00
 Porosity fraction from which anions are excluded: 0.500
 Crack volume potential of soil: 0.500
 Texture 1                : GR--LFS-GR--LS-CB--COS
 Depth                [mm]:      177.80      381.00     1651.00
 Bulk Density Moist [g/cc]:        1.10        1.30        1.40
 Ave. AW Incl. Rock Frag  :        0.22        0.23        0.24
 Ksat. (est.)      [mm/hr]:      400.00      500.00      500.00
 Organic Carbon [weight %]:        2.62        0.87        0.29
 Clay           [weight %]:        6.00        3.00        1.50
 Silt           [weight %]:        6.72       16.20        6.49
 Sand           [weight %]:       87.28       80.80       92.01
 Rock Fragments   [vol. %]:       22.12       31.38       50.63
 Soil Albedo (Moist)      :        0.01        0.04        0.13
 Erosion K                :        0.17        0.17        0.10
 Salinity (EC, Form 5)    :        0.00        0.00        0.00
                              
