 .Wgn file Subbasin: 37 STATION NAME:c4wgn 2014/1/25 0:00:00 ArcSWAT 2009.93.7
  LATITUDE =  24.51 LONGITUDE = 103.75
  ELEV [m] =1692.00
  RAIN_YRS =  32.00
 11.34 15.11 20.67 23.62 23.05 22.44 22.63 22.67 20.66 16.95 14.07 10.91
  3.94  4.98  7.84 11.36 13.73 15.85 16.18 15.51 13.61 11.29  7.36  4.28
  4.81  6.03  5.75  4.67  4.52  2.98  2.67  2.83  3.25  3.37  3.78  3.82
  3.21  3.21  3.23  2.62  2.69  1.95  1.42  1.68  2.51  3.05  3.34  3.48
 69.65 60.19 51.85 78.49216.11357.83368.42373.15231.65157.64107.53 70.48
  3.03  3.56  3.57  4.75  9.60 14.55 13.08 13.97 11.24  7.10  6.88  3.53
  3.75  3.60  4.25  3.70  3.50  3.24  4.59  2.85  3.94  3.58  4.63  5.07
  0.41  0.32  0.31  0.39  0.51  0.76  0.80  0.64  0.60  0.50  0.44  0.51
  0.94  0.87  0.81  0.86  0.96  0.99  1.00  0.99  0.97  0.98  0.96  0.94
 27.56 20.81 19.25 21.84 28.00 29.47 30.84 30.66 28.53 29.94 27.38 28.03
  5.82  6.58  7.85 10.70 22.62 27.77 34.74 20.32 27.04 16.89 14.37  8.58
  8.47 13.29 18.58 19.63 17.10 14.84 15.03 15.37 13.13  8.68  8.51  7.35
  0.88  0.76  0.61  0.63  0.78  0.89  0.91  0.91  0.91  0.93  0.92  0.92
  1.91  2.29  2.61  2.51  1.97  1.63  1.53  1.37  1.37  1.42  1.49  1.63
