 .Wgn file Subbasin: 33 STATION NAME:c5wgn 2014/1/25 0:00:00 ArcSWAT 2009.93.7
  LATITUDE =  24.20 LONGITUDE = 114.69
  ELEV [m] = 241.00
  RAIN_YRS =  32.00
 14.34 15.11 18.56 22.40 25.28 27.27 29.19 29.25 27.31 25.05 20.64 16.25
  5.46  7.64 11.08 15.61 18.75 21.71 22.79 22.61 20.26 16.15 11.24  6.47
  5.59  6.43  5.95  4.64  3.27  2.56  2.35  2.26  3.02  3.76  4.95  5.02
  3.91  4.47  4.39  3.56  2.73  1.95  1.09  1.10  2.24  3.15  3.76  3.97
 80.97137.72186.42285.79429.56455.67340.39328.78234.47 75.77 48.83 48.37
  6.30  7.61  8.96 13.40 20.48 18.84 16.58 11.34 12.63  6.45  5.23  4.42
  5.15  2.83  4.02  2.75  4.22  2.62  5.26  2.80  4.48  4.86  6.14  4.60
  0.31  0.39  0.46  0.68  0.70  0.84  0.64  0.89  0.41  0.25  0.24  0.19
  0.88  0.93  0.95  0.96  0.96  0.99  0.98  0.98  0.94  0.85  0.81  0.81
 21.53 23.66 27.88 28.53 29.31 29.41 30.13 30.41 26.41 19.94 16.75 15.69
 17.37 12.10 23.14 18.13 48.94 31.63 43.22 19.33 29.94 11.71 11.53  8.45
 10.65  9.43 10.84 12.86 15.35 17.31 21.71 20.41 17.69 16.19 13.48 11.97
  0.77  0.84  0.87  0.90  0.91  0.91  0.89  0.89  0.87  0.78  0.73  0.71
  3.12  2.92  2.54  2.20  2.04  2.12  2.13  1.88  2.21  2.77  3.14  3.25
