 .Wgn file Subbasin: 39 STATION NAME:c6wgn 2014/1/25 0:00:00 ArcSWAT 2009.93.7
  LATITUDE =  23.89 LONGITUDE = 109.38
  ELEV [m] = 106.00
  RAIN_YRS =  32.00
 13.52 15.01 18.84 24.43 27.53 29.24 30.82 31.53 29.79 26.84 21.67 16.71
  7.57  9.41 12.54 17.12 20.35 23.02 24.10 24.08 21.61 17.87 13.08  8.92
  5.33  6.49  6.50  5.75  3.79  2.47  2.46  2.72  3.66  4.75  5.15  5.06
  3.78  4.39  4.20  3.71  2.87  1.90  0.95  1.08  2.30  3.26  3.76  3.87
 93.40 94.81108.24156.38315.53382.58322.76307.52159.17 95.64 63.76 56.01
  6.23  4.72  4.92  7.70 14.47 16.19 13.88 12.91  8.09  8.85  5.63  4.27
  7.62  3.31  3.59  3.67  3.20  3.10  5.26  4.57  2.77  6.64  5.58  4.59
  0.32  0.43  0.50  0.67  0.58  0.52  0.60  0.56  0.35  0.19  0.21  0.19
  0.91  0.93  0.95  0.93  0.94  0.98  0.97  0.95  0.89  0.83  0.80  0.84
 23.38 24.63 27.78 27.34 28.19 28.63 29.53 28.78 23.13 16.88 15.09 16.75
 21.66  9.71  9.54 15.82 30.73 29.49 42.80 32.00 14.27 26.22 15.17  8.34
  7.13  7.21  8.93 13.51 16.86 19.16 22.26 21.34 18.50 15.49 11.94  9.51
  0.74  0.79  0.81  0.83  0.85  0.88  0.85  0.83  0.79  0.70  0.68  0.67
  3.78  3.74  3.43  3.11  2.79  2.61  2.72  2.20  2.47  3.03  3.37  3.65
